cases/Simple_Cases/wecc_full_slack_out.txt
ANDES 1.9.3.post10+g1eecc207
Copyright (C) 2015-2022 Hantao Cui

ANDES comes with ABSOLUTELY NO WARRANTY
Case file: wecc_full_slack.xlsx
Report time: 03/07/2026 05:00:45 PM

Power flow converged in 6 iterations.
Flat-start: No

Statistics:
Buses                            179
Generators                        29
Committed Gens                    29
Loads                            104
Shunts                             0
Lines                            263
Transformers                       0
Areas                              0

EXTENDED SUMMARY:
                              P (pu)            Q (pu)

Generation                    614.87            210.53
Load                          607.85            153.51

BUS DATA:
                            Bus Name            Vm(pu)          Va(rad.)

1                           CORONADO           0.98156          -0.52547
2                             CHOLLA           0.98135          -0.36564
3                           CORONADO              1.04            -0.412
4                              CRAIG           0.97477           0.21594
5                              CRAIG              0.95           0.34302
6                           FOURCORN            1.0857          -0.20888
7                           FOURCORN            1.0148          -0.15372
8                           FCNGN4CC                 1         -0.033667
9                           FOURCORN             1.013           -0.1631
10                            HAYDEN                 1           0.52071
11                            NAVAJO            1.0969          -0.47589
12                          NAVAJO 2                 1          -0.37143
13                          MOENKOPI            1.1024          -0.49255
14                          PALOVRD2              0.96           -0.4407
15                          PALOVRDE            1.0723          -0.57624
16                          SAN JUAN            1.0271          -0.13815
17                          SJUAN G4                 1         -0.085579
18                          WESTWING            1.0986          -0.57466
19                           NAVAJO1            1.0832          -0.45739
20                           NAVAJO2            1.1071          -0.51051
21                           NAVAJO3            1.0655          -0.44386
22                           NAVAJO4            1.0727          -0.60621
23                          MOENKOP1            1.0879          -0.46708
24                          MOENKOP2            1.0856          -0.60014
25                          MOENKOP3            1.1257          -0.34766
26                          MOENKOP4           0.99856          -0.79408
27                          FOURCOR1            1.0808          -0.17274
28                          FOURCOR2            1.1065          -0.54387
29                          CANAD G1                 1           0.50609
30                            CANADA            1.0318           0.43963
31                            CANALB            1.0764           0.93668
32                           CA230TO           0.97713            1.0171
33                             CA230             1.001            1.1751
34                          CMAIN GM              1.02             1.261
35                          BRIDGER2             1.009         -0.030337
36                          ADELANTO           0.96507          -0.78422
37                          ADELAN&1           0.94586          -0.86407
38                           CASTAIC           0.92714          -0.88822
39                          CASTAI4G              1.02          -0.86515
40                           GLENDAL           0.90582          -0.97231
41                            HAYNES           0.95168          -0.96972
42                          HAYNES3G                 1          -0.90916
43                           INTERMT            1.0356          -0.14311
44                          INTERM1G              1.05          -0.06067
45                             OLIVE           0.89607          -0.89331
46                           OWENS G              1.02          -0.89331
47                           RINALDI           0.89083          -0.89788
48                           RINALDI           0.95776          -0.84904
49                             RIVER           0.92025          -0.99323
50                             STA B           0.93513          -0.99289
51                            STA B1           0.94201          -0.96691
52                            STA B2           0.94201          -0.96691
53                           STA BLD           0.92696          -0.99818
54                             STA E           0.90069          -0.95251
55                             STA E           0.92516          -0.90003
56                             STA F           0.92247          -0.99381
57                             STA G           0.91181          -0.97816
58                             STA J           0.88923          -0.92338
59                          SYLMARLA           0.87973          -0.87904
60                          SYLMAR S             0.878          -0.90447
61                            VALLEY           0.89252          -0.92688
62                          VICTORVL           0.97876          -0.83568
63                          VICTORVL           0.97477          -0.79129
64                          MONTA G1                 1            1.1768
65                           MONTANA             1.034            1.0282
66                          BIG EDDY           0.94555          -0.33992
67                          BIG EDDY           0.94609          -0.28741
68                          BIG EDDY           0.97515          -0.25967
69                          DALLES21             1.055          -0.15696
70                            CELILO           0.93812          -0.29853
71                          CELILOCA           0.97412          -0.26197
72                           COLSTRP           0.91576          0.015127
73                            COULEE           0.95682          0.027539
74                          GARRISON           0.88501          -0.24775
75                          JOHN DAY           0.99548           -0.2146
76                          JOHN DAY                 1        7.7977e-21
77                           HANFORD           0.93845          0.028608
78                          NORTH G3                 1           0.54687
79                             NORTH           0.98163           0.27616
80                             BURNS            1.1008           -0.3773
81                           GRIZZLY            1.0522          -0.33629
82                             MALIN            1.0442          -0.44923
83                          MIDPOINT            1.1298          -0.15403
84                          MIDPOINT            1.0466          -0.09747
85                          SUMMER L            1.0616          -0.35968
86                          GRIZZLY1            1.0769          -0.36674
87                          GRIZZLY2            1.0372          -0.31626
88                            MALIN1            1.0649          -0.28822
89                            MALIN2            1.0601          -0.38719
90                          GRIZZLY3            1.0684          -0.42077
91                          GRIZZLY4            1.0541          -0.33786
92                          GRIZZLY5            1.0576          -0.43278
93                          GRIZZLY6            1.0566          -0.34964
94                          GRIZZLY7             1.068          -0.42546
95                          GRIZZLY8            1.0538          -0.33786
96                          GRIZZLY9            1.0569          -0.43814
97                          GRIZZLYA             1.056          -0.35027
98                            BURNS1            1.0414          0.047762
99                           CORTINA            1.1174          -0.66014
100                         COTWDPGE            1.1349          -0.57898
101                           DIABLO            1.0447          -0.87215
102                          DIABLO1              0.98          -0.80526
103                            GATES            1.0338          -0.89927
104                            GLENN            1.1335          -0.64533
105                         LOGAN CR            1.1307           -0.6525
106                         LOSBANOS            1.0358          -0.93263
107                           MIDWAY            1.0459          -0.91633
108                           MIDWAY            1.1654          -0.96677
109                         MOSSLAND            1.0329          -0.93737
110                           OLINDA            1.0092          -0.58777
111                         ROUND MT              1.02          -0.31026
112                         ROUND MT            1.1291          -0.48503
113                         ROUND MT             1.021          -0.53228
114                         TABLE MT            0.9906          -0.60609
115                           TEVATR              1.05          -0.67496
116                           TEVATR            1.1074          -0.74512
117                          TEVATR2                 1          -0.58462
118                           TEVATR           0.95678          -0.73419
119                          OLINDA1            1.0354          -0.46085
120                          OLINDA2           0.97192          -0.71677
121                          OLINDA3           0.99992          -0.58168
122                          OLINDA4           0.93115          -0.87984
123                           ROUND1            1.0402          -0.42669
124                           ROUND2           0.97998          -0.68187
125                           ROUND3            1.0402          -0.42669
126                           ROUND4           0.97998          -0.68187
127                           TABLE1            1.0074          -0.49228
128                           TABLE2            0.9436           -0.8579
129                           TABLE3            1.0082          -0.51981
130                           TABLE4           0.95159          -0.78089
131                          TEVATR1           0.93383          -0.69417
132                          TEVATR2             1.068          -0.97223
133                          TEVATR3           0.91965          -0.65665
134                           GATES1            1.0546          -0.94206
135                           DEVERS            1.0329          -0.81637
136                         EAGLROCK           0.92236           -1.0002
137                         ELDORADO              1.02          -0.50067
138                         ELDORADO            1.0476           -0.6254
139                         LITEHIPE              1.02          -0.94943
140                         LITEHIPE             1.004           -1.0576
141                             LUGO            1.0093          -0.86487
142                         MESA CAL           0.97301           -1.0423
143                         MIRALOMA              1.05          -0.85619
144                         MIRALOMA            1.0053          -0.93277
145                         MIRALOMA            1.0027          -0.94183
146                           MOHAVE            1.0717          -0.56106
147                         MOHAV1CC              1.05          -0.41607
148                           PARDEE              1.01           -0.7505
149                           PARDEE           0.92394          -0.98043
150                          SERRANO            1.0082          -0.93924
151                           VALLEY             1.019           -0.8942
152                          VINCENT            1.0348          -0.92117
153                          VINCENT           0.96532          -0.97326
154                         CAMP WIL            1.0568          -0.11045
155                         BENLOMND            1.0638          -0.12686
156                         BENLOMND            1.0628          -0.13637
157                            EMERY            1.0505          0.013463
158                            EMERY              1.05          0.095152
159                             MONA            1.0584          -0.10271
160                         NAUGHTON            1.0469         -0.056474
161                           NAUGHT                 1          -0.00764
162                         PINTO PS            1.0499          -0.11464
163                            PINTO            1.0568         -0.096402
164                         SPAN FRK            1.0492         -0.088045
165                           SIGURD            1.0645         -0.078761
166                         TERMINAL            1.0549          -0.12745
167                           MALIN3            1.0537          -0.38461
168                           MALIN4              1.01          -0.60056
169                           MALIN5            1.0551            -0.371
170                           MALIN6            1.0114          -0.60111
171                           MALIN7             1.061          -0.34549
172                           MALIN8           0.99162           -0.7013
173                          MIDWAY1            1.0478          -0.90922
174                          MIDWAY2            1.0138          -0.92858
175                          MIDWAY3            1.0478           -0.9091
176                          MIDWAY4            1.0138          -0.92863
177                          MIDWAY5            1.0483          -0.90893
178                          MIDWAY6            1.0168          -0.92808
179                           BURNS2            1.1123          -0.18773

LINE DATA:
                           Line Name     Fr. Bus (idx)      To Bus (idx)       P From (pu)       Q From (pu)         P To (pu)         Q To (pu)

Line_1                        Line_1                 2                 7             -10.5          -0.82685            10.705           0.53935
Line_2                        Line_2                 4                16              3.14           -1.1278           -3.0383           0.26785
Line_3                        Line_3                 4               159            2.3399           -1.5113           -2.2921          -0.20219
Line_4                        Line_4                 6                27            10.389           -1.4943           -10.389             1.113
Line_5                        Line_5                 7                16           -3.2512           -2.0567            3.2583              2.04
Line_6                        Line_6                 7               162           -1.0303           -1.0495            1.0375           0.35976
Line_7                        Line_7                11                19            3.4654           -2.4062           -3.4654            2.3124
Line_8                        Line_8                11                21            3.1496           -2.9513           -3.1496            2.7673
Line_9                        Line_9                11               138            8.3849            1.4434           -8.2115           -1.3088
Line_10                      Line_10                13                20           -3.4561           0.78839            3.4561          -0.85394
Line_11                      Line_11                13                23            3.6981           -1.9772           -3.6981            1.8576
Line_12                      Line_12                13                25            9.9824           0.70817           -9.9824           -2.1874
Line_13                      Line_13                13                28           -10.224           0.48061            10.224           -1.0082
Line_14                      Line_14                15                18          -0.31498           -3.4417           0.31799            2.4489
Line_15                      Line_15                15                18          -0.31498           -3.4417           0.31799            2.4489
Line_16                      Line_16                15               135             9.027           0.46805           -8.8369          -0.67649
Line_17                      Line_17                15               135             9.027           0.46805           -8.8369          -0.67649
Line_18                      Line_18                18                22           -3.1286           -2.4363            3.1286            2.2815
Line_19                      Line_19                18                24           -3.6774           -1.7716            3.6774            1.6575
Line_20                      Line_20                19                20            3.4654           -2.3124           -3.4561           0.85394
Line_21                      Line_21                21                22            3.1496           -2.7673           -3.1286           -2.2815
Line_22                      Line_22                23                24            3.6981           -1.8576           -3.6774           -1.6575
Line_23                      Line_23                25                26            9.9824            2.1874           -9.7836           -1.9007
Line_24                      Line_24                26               138            9.7836            1.9007           -9.7836           -3.6888
Line_25                      Line_25                27                28            10.389            -1.113           -10.224            1.0082
Line_26                      Line_26                30                31           -7.4835          -0.81518            7.6764          -0.44638
Line_27                      Line_27                30                79            6.9835           0.73131           -6.9407            -2.844
Line_28                      Line_28                32                33           -7.6764          -0.17111               7.8           0.62369
Line_29                      Line_29                36                37            3.9518           0.34237           -3.9386           -1.2911
Line_30                      Line_30                36                55             6.301            1.8046           -6.2612           -2.0556
Line_31                      Line_31                36                63            4.1836           -5.9285           -4.1836            5.9043
Line_32                      Line_32                36                63            4.1836           -5.9285           -4.1836            5.9043
Line_33                      Line_33                38                45           0.18241           0.81787          -0.18047          -0.84949
Line_34                      Line_34                38                47           0.27593           0.83066          -0.27315          -0.86225
Line_35                      Line_35                38                58           0.66709           0.67517          -0.66363          -0.70604
Line_36                      Line_36                38                59          -0.13348            1.2621           0.13793            -1.256
Line_37                      Line_37                40                54           -2.1815            0.7992            2.1846           -0.7648
Line_38                      Line_38                40                57           0.83148           -1.0692           -0.8307            1.0712
Line_39                      Line_39                41                49           0.65562           0.80393          -0.65286          -0.82871
Line_40                      Line_40                41                49           0.61191            0.7445          -0.60932          -0.77715
Line_41                      Line_41                41                56           0.74436           0.83255          -0.74148           -0.8489
Line_42                      Line_42                41                57           0.22733           0.82528          -0.22483          -0.87081
Line_43                      Line_43                43               159            -1.865            -1.026            1.8719            0.6383
Line_44                      Line_44                43               159            -1.865            -1.026            1.8719            0.6383
Line_45                      Line_45                45                47           0.90847            1.0195          -0.90779            -1.017
Line_46                      Line_46                47                54            2.6433           -0.8743            -2.621            1.0039
Line_47                      Line_47                47                54            2.6433           -0.8743            -2.621            1.0039
Line_48                      Line_48                47                58            2.0703           -0.1356           -2.0627           0.17266
Line_49                      Line_49                47                58            2.0703           -0.1356           -2.0627           0.17266
Line_50                      Line_50                47                58            2.0526          -0.17474            -2.044           0.21136
Line_51                      Line_51                47                58            2.0526          -0.17474            -2.044           0.21136
Line_52                      Line_52                47                59           -3.5649            2.7914            3.5719            -2.697
Line_53                      Line_53                47                59           -3.5649            2.7914            3.5719            -2.697
Line_54                      Line_54                47                59           -3.5649            2.7914            3.5719            -2.697
Line_55                      Line_55                47                61            2.0219          -0.36505           -2.0146           0.40468
Line_56                      Line_56                47                61            2.0219          -0.36505           -2.0146           0.40468
Line_57                      Line_57                48                63           -2.8887           -1.4194            2.8967          0.043317
Line_58                      Line_58                49                56          0.076529          -0.56967         -0.076386           0.56403
Line_59                      Line_59                49                57           -2.0143            1.5255            2.0185           -1.4917
Line_60                      Line_60                51                62           -1.5437          -0.29144            1.5726           0.16686
Line_61                      Line_61                52                62           -1.5437          -0.29144            1.5726           0.16686
Line_62                      Line_62                53                56          -0.33412           0.41901           0.33437          -0.43735
Line_63                      Line_63                53                56          -0.33412           0.41901           0.33437          -0.43735
Line_64                      Line_64                54                57            1.6032          -0.94782           -1.5982            0.9777
Line_65                      Line_65                54                57            1.6032          -0.94782           -1.5982            0.9777
Line_66                      Line_66                54                61           -1.9693            1.0281            1.9771          -0.98535
Line_67                      Line_67                56                57           -1.0209           0.91957            1.0233          -0.91407
Line_68                      Line_68                60               136            2.8538           -1.5254            -2.835            1.7973
Line_69                      Line_69                60               149            4.9962            -3.493            -4.965            4.0254
Line_70                      Line_70                60               149            4.9962            -3.493            -4.965            4.0254
Line_71                      Line_71                63               138            -6.807           -2.0286            6.9002            2.7949
Line_72                      Line_72                63               138            -6.807           -2.0286            6.9002            2.7949
Line_73                      Line_73                63               141            17.228           -8.5449           -17.151            9.8388
Line_74                      Line_74                65                77              11.1            4.6503           -10.985            2.7707
Line_75                      Line_75                67                70            7.7871            5.4393            -7.781           -5.3106
Line_76                      Line_76                67                70            8.8276            6.0893           -8.8199           -5.9431
Line_77                      Line_77                68                71            7.3852            3.0964           -7.3845           -3.0898
Line_78                      Line_78                68                71            7.3852            3.0945           -7.3845           -3.0917
Line_79                      Line_79                68                75           -9.8861           -3.8312             9.913            4.0352
Line_80                      Line_80                68                75           -9.9769           -3.9214            10.001             4.159
Line_81                      Line_81                72                74             15.25               0.5           -14.745           0.48207
Line_82                      Line_82                73                77        4.4409e-16                 0         0.0008902           -1.6499
Line_83                      Line_83                74                75           -1.0549           -3.6181            1.0784            2.3476
Line_84                      Line_84                74                77            -10.04          -0.80396            10.223            2.1463
Line_85                      Line_85                75                77           -9.4998            3.2805            9.6297           -2.3778
Line_86                      Line_86                75                77           -11.183             2.597            11.227           -3.0548
Line_87                      Line_87                75                81             8.834           -4.3909            -8.775            4.5622
Line_88                      Line_88                75                81            5.1785           -3.0298           -5.1433            2.1736
Line_89                      Line_89                75                81            5.1774           -3.0257           -5.1426            2.1713
Line_90                      Line_90                77                79           -27.548           -1.4172             27.72            7.2909
Line_91                      Line_91                77                79           -27.548           -1.4172             27.72            7.2909
Line_92                      Line_92                80                98           -8.6512           0.34633            8.8418           -2.5551
Line_93                      Line_93                80               179            8.6512          -0.34633           -8.6512           -1.3036
Line_94                      Line_94                81                86            4.4752           -4.0944           -4.4627            3.4945
Line_95                      Line_95                81                90            7.4186           -1.9477           -7.3845            1.5208
Line_96                      Line_96                81                94            7.8332            -1.895           -7.7955            1.5392
Line_97                      Line_97                82                88            -12.89          -0.54771                13            1.2356
Line_98                      Line_98                82                93           -7.3099          -0.74335            7.3482             0.224
Line_99                      Line_99                82                97           -7.7146          -0.66943             7.755           0.26504
Line_100                    Line_100                82               167            9.8674            1.0645           -9.8674           -1.7149
Line_101                    Line_101                82               169            9.9653           0.92744           -9.9653           -1.7213
Line_102                    Line_102                82               171            11.472            1.1586           -11.472           -2.3781
Line_103                    Line_103                83                98            8.8418           -4.6381           -8.8418            2.5551
Line_104                    Line_104                84               155           0.45822          -0.91411          -0.45651          -0.30963
Line_105                    Line_105                85                87           -4.4478            2.2841            4.4627           -3.1446
Line_106                    Line_106                85                89            13.018          0.056454               -13          0.054793
Line_107                    Line_107                85               179           -8.5704           -2.3406            8.6512            1.3036
Line_108                    Line_108                86                87            4.4627           -3.4945           -4.4627            3.1446
Line_109                    Line_109                88                89               -13           -1.2356                13         -0.054793
Line_110                    Line_110                90                91            7.3845           -1.5208           -7.3845           0.89189
Line_111                    Line_111                91                92            7.3845          -0.89189           -7.3482           0.38741
Line_112                    Line_112                92                93            7.3482          -0.38741           -7.3482            -0.224
Line_113                    Line_113                94                95            7.7955           -1.5392           -7.7955           0.84007
Line_114                    Line_114                95                96            7.7955          -0.84007            -7.755           0.41693
Line_115                    Line_115                96                97             7.755          -0.41693            -7.755          -0.26504
Line_116                    Line_116                99               100          -0.60723           -0.1279           0.61456         -0.078689
Line_117                    Line_117                99               116            1.0402         -0.072101           -1.0274          0.010326
Line_118                    Line_118               100               104           0.90731          -0.15864          -0.89839           0.07615
Line_119                    Line_119               100               105           0.82117          -0.13618          -0.81241          0.021341
Line_120                    Line_120               100               112           -1.7216           0.42343            1.7491          -0.35165
Line_121                    Line_121               100               112           -1.7624           0.42608            1.7896          -0.34503
Line_122                    Line_122               100               112           -1.7311           0.42631            1.7587            -0.352
Line_123                    Line_123               100               116           0.76809          -0.13231          -0.75008          -0.13181
Line_124                    Line_124               101               103            1.5341          -0.18373           -1.5322           -1.2042
Line_125                    Line_125               101               107             2.308          -0.90114           -2.3037          -0.58877
Line_126                    Line_126               101               107             2.308          -0.90114           -2.3037          -0.58877
Line_127                    Line_127               103               106             1.793          -0.14882           -1.7905           0.20893
Line_128                    Line_128               103               133           -6.1621            3.4187            6.2103           -2.8639
Line_129                    Line_129               103               134            2.8514           -1.9897           -2.8445           0.95471
Line_130                    Line_130               104               116           0.62339          -0.07515          -0.61398          -0.16914
Line_131                    Line_131               105               116           0.73231         -0.021341          -0.72278          -0.13966
Line_132                    Line_132               106               107           -1.2597          -0.56644            1.2624           0.59257
Line_133                    Line_133               106               109            0.4001           0.21751              -0.4            -0.215
Line_134                    Line_134               107               132           -4.6908            1.5985            4.6913           -1.8973
Line_135                    Line_135               107               134           -2.8444           0.87393            2.8445          -0.95471
Line_136                    Line_136               107               173           0.83413           0.21089          -0.83413          -0.21722
Line_137                    Line_137               107               175           0.83959           0.20651          -0.83959          -0.21296
Line_138                    Line_138               107               177           0.86781           0.26447          -0.86781           -0.2715
Line_139                    Line_139               110               119            13.228            1.8061           -13.228            -3.556
Line_140                    Line_140               110               172           -11.338           -2.4211            11.338            1.1016
Line_141                    Line_141               113               123            11.213            1.4004           -11.211           -2.6229
Line_142                    Line_142               113               125            11.213            1.4004           -11.211           -2.6229
Line_143                    Line_143               113               168           -9.7708           -1.8906            9.7708            1.2065
Line_144                    Line_144               113               170           -9.8635           -1.6937            9.8635            1.0019
Line_145                    Line_145               114               124           -11.032           -2.0144            11.033            1.1609
Line_146                    Line_146               114               126           -11.032           -2.0144            11.033            1.1609
Line_147                    Line_147               114               127            10.119           0.92132           -10.118           -2.0997
Line_148                    Line_148               114               129            11.951            1.9224            -11.95           -2.9975
Line_149                    Line_149               118               122            -12.93           -3.3953             12.93             1.443
Line_150                    Line_150               118               128           -9.9451            -1.751            9.9463           0.50338
Line_151                    Line_151               118               130           -11.802           -1.6867            11.803            1.1278
Line_152                    Line_152               118               131            4.7393           -2.9967            -4.739            2.7374
Line_153                    Line_153               118               133            6.2108            -3.471           -6.2103            2.8639
Line_154                    Line_154               119               120            13.228             3.556           -13.089            -1.836
Line_155                    Line_155               120               121            13.089             1.836           -13.089           -3.6853
Line_156                    Line_156               121               122            13.089            3.6853            -12.93            -1.443
Line_157                    Line_157               123               124            11.211            2.6229           -11.033           -1.1609
Line_158                    Line_158               125               126            11.211            2.6229           -11.033           -1.1609
Line_159                    Line_159               127               128            10.118            2.0997           -9.9463          -0.50338
Line_160                    Line_160               129               130             11.95            2.9975           -11.803           -1.1278
Line_161                    Line_161               131               132             4.739           -2.7374           -4.6913            1.8973
Line_162                    Line_162               135               151            9.1137             1.157           -9.0801           -1.1361
Line_163                    Line_163               136               142            1.3234           -1.9196           -1.3116            1.9912
Line_164                    Line_164               136               149          -0.23844         -0.057655           0.23901         -0.073596
Line_165                    Line_165               138               141            9.1559          -0.67037           -9.0022           -2.0587
Line_166                    Line_166               138               146           -5.1571           -1.9871            5.1717            1.1846
Line_167                    Line_167               140               142          -0.96001             2.521           0.96808           -2.4747
Line_168                    Line_168               141               144            9.1622           0.23983            -9.139          -0.14243
Line_169                    Line_169               141               144            9.1995           0.13613           -9.1704         -0.073511
Line_170                    Line_170               141               146           -10.425           -1.9024            10.628           0.72488
Line_171                    Line_171               141               150            5.9085           -0.4519            -5.888         -0.072296
Line_172                    Line_172               141               152            5.1333           -2.7599           -5.1195            2.2449
Line_173                    Line_173               141               152            5.1333           -2.7599           -5.1195            2.2449
Line_174                    Line_174               142               145           -1.8218          -0.46975            1.8268           0.51915
Line_175                    Line_175               142               153           -1.6087           0.30822            1.6179           -0.3296
Line_176                    Line_176               144               150            1.4026          -0.85536           -1.4021           0.53867
Line_177                    Line_177               149               153          -0.25553           -1.0811           0.25927             1.016
Line_178                    Line_178               149               153          -0.23345           -1.1626           0.23555            1.1138
Line_179                    Line_179               150               151             -5.01           -1.1944            5.0201           0.72613
Line_180                    Line_180               152               174          -0.83144            -2.324           0.83144            2.2708
Line_181                    Line_181               152               176          -0.83689           -2.3215           0.83689            2.2683
Line_182                    Line_182               152               178          -0.86537           -2.2189           0.86537            2.1744
Line_183                    Line_183               154               155           0.53701          -0.58358          -0.53625         -0.063502
Line_184                    Line_184               154               157           -2.2407          -0.11702             2.265          -0.72289
Line_185                    Line_185               154               157           -2.5084          0.019194            2.5372          -0.68576
Line_186                    Line_186               154               159          -0.38788           -0.2641           0.38811          -0.17936
Line_187                    Line_187               154               159          -0.36677          -0.24898           0.36703           -0.1782
Line_188                    Line_188               154               164           -1.4038           0.41538            1.4063          -0.71104
Line_189                    Line_189               154               166            1.7936         -0.037887           -1.7912          -0.15884
Line_190                    Line_190               155               166          0.059009           0.20213         -0.058758          -0.62616
Line_191                    Line_191               156               160          -0.88534           0.12531           0.89376          -0.41683
Line_192                    Line_192               157               163              1.37          -0.93642           -1.3535          -0.49608
Line_193                    Line_193               157               164            2.8432          -0.42875           -2.8183        -0.0029616
Line_194                    Line_194               157               165            2.7068          -0.85688           -2.6834           0.41991
Line_195                    Line_195               157               165             2.721          -0.85951           -2.6974            0.4268
Line_196                    Line_196               159               165          -0.80393           -0.4186           0.80616          -0.21771
Line_197                    Line_197               159               165          -0.78284          -0.42626           0.78462          -0.19899
Line_198                    Line_198               167               168            9.8674            1.7149           -9.7708           -1.2065
Line_199                    Line_199               169               170            9.9653            1.7213           -9.8635           -1.0019
Line_200                    Line_200               171               172            11.472            2.3781           -11.338           -1.1016
Line_201                    Line_201               173               174           0.83413           0.21722          -0.83144           -2.2708
Line_202                    Line_202               175               176           0.83959           0.21296          -0.83689           -2.2683
Line_203                    Line_203               177               178           0.86781            0.2715          -0.86537           -2.1744
Line_204                    Line_204                 1                 2             -10.5           0.85493              10.5           0.82685
Line_205                    Line_205                 1                 3                -7          -0.29493                 7             1.098
Line_206                    Line_206                 4                 5             -9.48            2.5537              9.48           -1.2978
Line_207                    Line_207                 4                10             -19.5            1.3553              19.5            4.6765
Line_208                    Line_208                 6                 7           -5.1945           0.74716            5.1945          -0.45673
Line_209                    Line_209                 6                 7           -5.1945           0.74716            5.1945          -0.45673
Line_210                    Line_210                 7                 8             -20.6            3.7888              20.6           -1.2754
Line_211                    Line_211                 7                 9           0.70113           0.12643          -0.70099          -0.11963
Line_212                    Line_212                 7                 9           0.69615           0.12512          -0.69601          -0.11837
Line_213                    Line_213                11                12             -15.9            3.2141              15.9           -1.5151
Line_214                    Line_214                15                14           -25.358            3.8774              25.4          -0.41126
Line_215                    Line_215                16                17             -8.62           -2.3578              8.62            2.8525
Line_216                    Line_216                30                29             -43.5           -9.9161              43.5            13.008
Line_217                    Line_217                31                32           -7.6764           0.44638            7.6764           0.17111
Line_218                    Line_218                33                34             -43.8           -7.6237              43.8            11.569
Line_219                    Line_219                84                35             -15.4            9.0722              15.4           -7.7306
Line_220                    Line_220                37                47            3.9386            1.2911           -3.9358           -1.1444
Line_221                    Line_221                38                39          -0.99195           -3.5858                 1            3.9691
Line_222                    Line_222                41                42           -2.2392           -3.2063              2.25            3.6774
Line_223                    Line_223                43                44             -16.8           -7.0189              16.8            8.7077
Line_224                    Line_224                47                46         -0.089082           -1.2544               0.1            1.5054
Line_225                    Line_225                48                47            2.8887            1.4194           -2.8855           -1.2468
Line_226                    Line_226                51                50            1.5437           0.29144            -1.542          -0.24984
Line_227                    Line_227                52                50            1.5437           0.29144            -1.542          -0.24984
Line_228                    Line_228                53                50          -0.35726          -0.56108           0.35741           0.56793
Line_229                    Line_229                53                50           -0.3545          -0.55695           0.35465           0.56375
Line_230                    Line_230                55                54            3.1306            1.0278           -3.1289          -0.84827
Line_231                    Line_231                55                54            3.1306            1.0278           -3.1289          -0.84827
Line_232                    Line_232                59                60            16.856            -7.193           -16.856            7.7055
Line_233                    Line_233                63                62             1.856           0.75021           -1.8552          -0.65571
Line_234                    Line_234                65                64             -28.1           -7.6503              28.1            12.362
Line_235                    Line_235                67                66            1.6026           0.40138              -1.6           -0.3125
Line_236                    Line_236                68                67            2.1246           0.50856           -2.1235          -0.44643
Line_237                    Line_237                68                67            3.4101           0.83321           -3.4089          -0.73337
Line_238                    Line_238                67                69            -12.01            -12.35             12.01            16.097
Line_239                    Line_239                71                70            14.769            6.1815           -14.769           -5.5563
Line_240                    Line_240                75                76           -51.499           -16.973              51.5             30.38
Line_241                    Line_241                79                78             -98.5           -15.738              98.5            45.072
Line_242                    Line_242                83                84           -8.8418            4.6381            8.8418           -4.0181
Line_243                    Line_243               101               102             -6.65             1.736              6.65           -1.2683
Line_244                    Line_244               108               107           -3.1582          -0.13159             3.161           0.29188
Line_245                    Line_245               108               107           -4.6178          -0.19441            4.6217           0.42879
Line_246                    Line_246               111               112              9.57        -0.0019999             -9.57            1.6919
Line_247                    Line_247               112               113            2.7926          -0.64324           -2.7918           0.78359
Line_248                    Line_248               115               116              4.94            3.2044             -4.94           -2.7327
Line_249                    Line_249               116               118          -0.78576             2.615           0.78729           -2.5198
Line_250                    Line_250               117               118             33.67            26.421            -33.67           -19.089
Line_251                    Line_251               137               138             8.827           -1.0405            -8.827            2.1794
Line_252                    Line_252               139               140             30.95            12.571            -30.95            -8.821
Line_253                    Line_253               143               144              15.9            13.305             -15.9           -11.356
Line_254                    Line_254               144               145            1.8268           0.53708           -1.8268          -0.51915
Line_255                    Line_255               146               147             -15.8           -1.9095              15.8            4.2923
Line_256                    Line_256               148               149                21            12.324               -21           -6.5134
Line_257                    Line_257               152               153            4.2576           0.79153           -4.2576          -0.56409
Line_258                    Line_258               152               153            4.2576           0.79153           -4.2576          -0.56409
Line_259                    Line_259               152               153            4.2576           0.79153           -4.2576          -0.56409
Line_260                    Line_260               155               156           0.59476          0.052006          -0.59466         -0.046305
Line_261                    Line_261               157               158           -15.604            4.1062             15.65           -2.7771
Line_262                    Line_262               160               161           -3.4438          -0.58317              3.45           0.75912
Line_263                    Line_263               163               162            1.0375           0.38108           -1.0375          -0.35976

OTHER ALGEBRAIC VARIABLES:
                                    

q PV 1                         1.098
q PV 2                       -1.2978
q PV 3                       -1.2754
q PV 4                        4.6765
q PV 5                       -1.5151
q PV 6                      -0.41126
q PV 7                        2.8525
q PV 8                        13.008
q PV 9                        11.569
q PV 10                      -7.7306
q PV 11                       3.9691
q PV 12                       3.6774
q PV 13                       8.7077
q PV 14                       1.5054
q PV 15                       12.362
q PV 16                       16.097
q PV 18                       45.072
q PV 19                      -1.2683
q PV 20                       -0.002
q PV 21                       3.2044
q PV 22                       26.421
q PV 23                      -1.0405
q PV 24                       12.571
q PV 25                       13.305
q PV 26                       4.2923
q PV 27                       12.324
q PV 28                      -2.7771
q PV 29                      0.75912
q Slack 17                     30.38
p Slack 17                      52.5

